<?xml version='1.0' encoding='utf-8'?>
<routes>
	<flow begin="0" end="15" />
	<flow begin="1" end="16" />
	<flow begin="2" end="17" />
	<flow begin="3" end="18" />
	<flow begin="4" end="19" />
</routes>
