
<additional>

    <!-- <edgeData id="10min_agg" freq="600" excludeEmpty="True" begin="0" end="1800" file="./output/edata_10min_agg.xml" edgesFile="edges.txt" />
    <edgeData id="8min_agg"  freq="480" excludeEmpty="True" begin="0" end="1800" file="./output/edata_8min_agg.xml"  edgesFile="edges.txt" />
    <edgeData id="6min_agg"  freq="360" excludeEmpty="True" begin="0" end="1800" file="./output/edata_6min_agg.xml"  edgesFile="edges.txt" />
    <edgeData id="4min_agg"  freq="240" excludeEmpty="True" begin="0" end="1800" file="./output/edata_4min_agg.xml"  edgesFile="edges.txt" />
    <edgeData id="2min_agg"  freq="120" excludeEmpty="True" begin="0" end="1800" file="./output/edata_2min_agg.xml"  edgesFile="edges.txt" /> -->

</additional>
