<?xml version="1.0" encoding="UTF-8"?>

<!-- generated on 04/25/22 23:14:30 by Eclipse SUMO netedit Version 1.8.0
<configuration xmlns:xsi="http://www.w3.org/2001/XMLSchema-instance" xsi:noNamespaceSchemaLocation="http://sumo.dlr.de/xsd/netconvertConfiguration.xsd">

    <input>
        <sumo-net-file value="C:\Users\hongtao45\Desktop\WuHan-0420\map.net.xml"/>
    </input>

    <output>
        <output-file value="C:\Users\hongtao45\Desktop\WuHan-0420\map.net.xml"/>
    </output>

    <processing>
        <geometry.min-radius.fix.railways value="false"/>
        <geometry.max-grade.fix value="false"/>
        <offset.disable-normalization value="true"/>
        <lefthand value="false"/>
    </processing>

    <junctions>
        <no-turnarounds value="true"/>
        <junctions.corner-detail value="5"/>
        <junctions.limit-turn-speed value="5.5"/>
        <rectangular-lane-cut value="false"/>
    </junctions>

    <pedestrian>
        <walkingareas value="false"/>
    </pedestrian>

    <report>
        <aggregate-warnings value="5"/>
    </report>

</configuration>
-->

<net version="1.6" junctionCornerDetail="5" limitTurnSpeed="5.50" xmlns:xsi="http://www.w3.org/2001/XMLSchema-instance" xsi:noNamespaceSchemaLocation="http://sumo.dlr.de/xsd/net_file.xsd">

    <location netOffset="-223511.02,-3376780.80" convBoundary="15678.18,14129.09,17025.02,15227.18" origBoundary="114.115096,30.480137,114.372061,30.714401" projParameter="+proj=utm +zone=50 +ellps=WGS84 +datum=WGS84 +units=m +no_defs"/>

    <type id="highway.bridleway" priority="1" numLanes="1" speed="2.78" allow="pedestrian" oneway="1" width="2.00"/>
    <type id="highway.bus_guideway" priority="1" numLanes="1" speed="27.78" allow="bus" oneway="1"/>
    <type id="highway.cycleway" priority="1" numLanes="1" speed="8.33" allow="bicycle" oneway="1" width="1.00"/>
    <type id="highway.footway" priority="1" numLanes="1" speed="2.78" allow="pedestrian" oneway="1" width="2.00"/>
    <type id="highway.ford" priority="1" numLanes="1" speed="2.78" allow="army" oneway="1"/>
    <type id="highway.living_street" priority="2" numLanes="1" speed="2.78" disallow="tram rail_urban rail rail_electric rail_fast ship" oneway="1"/>
    <type id="highway.motorway" priority="14" numLanes="2" speed="39.44" allow="private emergency authority army vip passenger hov taxi bus coach delivery truck trailer motorcycle evehicle custom1 custom2" oneway="1"/>
    <type id="highway.motorway_link" priority="9" numLanes="1" speed="22.22" allow="private emergency authority army vip passenger hov taxi bus coach delivery truck trailer motorcycle evehicle custom1 custom2" oneway="1"/>
    <type id="highway.path" priority="1" numLanes="1" speed="2.78" allow="pedestrian bicycle" oneway="1" width="2.00"/>
    <type id="highway.pedestrian" priority="1" numLanes="1" speed="2.78" allow="pedestrian" oneway="1" width="2.00"/>
    <type id="highway.primary" priority="12" numLanes="2" speed="27.78" disallow="tram rail_urban rail rail_electric rail_fast ship" oneway="1"/>
    <type id="highway.primary_link" priority="7" numLanes="1" speed="22.22" disallow="tram rail_urban rail rail_electric rail_fast ship" oneway="1"/>
    <type id="highway.raceway" priority="15" numLanes="2" speed="83.33" allow="vip" oneway="1"/>
    <type id="highway.residential" priority="3" numLanes="1" speed="13.89" disallow="tram rail_urban rail rail_electric rail_fast ship" oneway="1"/>
    <type id="highway.secondary" priority="11" numLanes="1" speed="27.78" disallow="tram rail_urban rail rail_electric rail_fast ship" oneway="1"/>
    <type id="highway.secondary_link" priority="6" numLanes="1" speed="22.22" disallow="tram rail_urban rail rail_electric rail_fast ship" oneway="1"/>
    <type id="highway.service" priority="1" numLanes="1" speed="5.56" allow="pedestrian delivery bicycle" oneway="1"/>
    <type id="highway.stairs" priority="1" numLanes="1" speed="1.39" allow="pedestrian" oneway="1" width="2.00"/>
    <type id="highway.step" priority="1" numLanes="1" speed="1.39" allow="pedestrian" oneway="1" width="2.00"/>
    <type id="highway.steps" priority="1" numLanes="1" speed="1.39" allow="pedestrian" oneway="1" width="2.00"/>
    <type id="highway.tertiary" priority="10" numLanes="1" speed="22.22" disallow="tram rail_urban rail rail_electric rail_fast ship" oneway="1"/>
    <type id="highway.tertiary_link" priority="5" numLanes="1" speed="22.22" disallow="tram rail_urban rail rail_electric rail_fast ship" oneway="1"/>
    <type id="highway.track" priority="1" numLanes="1" speed="5.56" allow="pedestrian motorcycle moped bicycle" oneway="1"/>
    <type id="highway.trunk" priority="13" numLanes="2" speed="27.78" disallow="pedestrian bicycle tram rail_urban rail rail_electric rail_fast ship" oneway="1"/>
    <type id="highway.trunk_link" priority="8" numLanes="1" speed="22.22" disallow="pedestrian bicycle tram rail_urban rail rail_electric rail_fast ship" oneway="1"/>
    <type id="highway.unclassified" priority="4" numLanes="1" speed="13.89" disallow="tram rail_urban rail rail_electric rail_fast ship" oneway="1"/>
    <type id="highway.unsurfaced" priority="1" numLanes="1" speed="8.33" disallow="tram rail_urban rail rail_electric rail_fast ship" oneway="1"/>
    <type id="railway.highspeed" priority="21" numLanes="1" speed="69.44" allow="rail_fast" oneway="1"/>
    <type id="railway.light_rail" priority="19" numLanes="1" speed="27.78" allow="rail_urban" oneway="1"/>
    <type id="railway.preserved" priority="16" numLanes="1" speed="27.78" allow="rail" oneway="1"/>
    <type id="railway.rail" priority="20" numLanes="1" speed="44.44" allow="rail" oneway="1"/>
    <type id="railway.subway" priority="18" numLanes="1" speed="27.78" allow="rail_urban" oneway="1"/>
    <type id="railway.tram" priority="17" numLanes="1" speed="13.89" allow="tram" oneway="1"/>

    <edge id=":1233267529_0" function="internal">
        <lane id=":1233267529_0_0" index="0" disallow="tram rail_urban rail rail_electric rail_fast ship" speed="27.78" length="0.29" shape="16009.30,14868.77 16009.21,14869.10"/>
        <lane id=":1233267529_0_1" index="1" disallow="tram rail_urban rail rail_electric rail_fast ship" speed="27.78" length="0.29" shape="16006.22,14867.91 16006.14,14868.19"/>
        <lane id=":1233267529_0_2" index="2" disallow="tram rail_urban rail rail_electric rail_fast ship" speed="27.78" length="0.29" shape="16003.14,14867.05 16003.07,14867.28"/>
    </edge>
    <edge id=":1233267534_0" function="internal">
        <lane id=":1233267534_0_0" index="0" disallow="tram rail_urban rail rail_electric rail_fast ship" speed="27.78" length="0.37" shape="15975.98,14859.79 15976.15,14859.19"/>
        <lane id=":1233267534_0_1" index="1" disallow="tram rail_urban rail rail_electric rail_fast ship" speed="27.78" length="0.37" shape="15979.08,14860.56 15979.19,14860.20"/>
        <lane id=":1233267534_0_2" index="2" disallow="tram rail_urban rail rail_electric rail_fast ship" speed="27.78" length="0.37" shape="15982.19,14861.33 15982.23,14861.21"/>
    </edge>
    <edge id=":1445954842_0" function="internal">
        <lane id=":1445954842_0_0" index="0" disallow="tram rail_urban rail rail_electric rail_fast ship" speed="27.78" length="0.29" shape="15834.61,14536.18 15834.93,14536.31"/>
        <lane id=":1445954842_0_1" index="1" disallow="tram rail_urban rail rail_electric rail_fast ship" speed="27.78" length="0.29" shape="15833.43,14539.16 15833.69,14539.27"/>
        <lane id=":1445954842_0_2" index="2" disallow="tram rail_urban rail rail_electric rail_fast ship" speed="27.78" length="0.29" shape="15832.24,14542.13 15832.46,14542.22"/>
    </edge>
    <edge id=":299848269_0" function="internal">
        <lane id=":299848269_0_0" index="0" disallow="tram rail_urban rail rail_electric rail_fast ship" speed="27.78" length="0.30" shape="16321.12,14453.86 16320.91,14454.03"/>
        <lane id=":299848269_0_1" index="1" disallow="tram rail_urban rail rail_electric rail_fast ship" speed="27.78" length="0.30" shape="16319.17,14451.33 16318.93,14451.51"/>
        <lane id=":299848269_0_2" index="2" disallow="tram rail_urban rail rail_electric rail_fast ship" speed="27.78" length="0.30" shape="16317.21,14448.79 16316.96,14448.99"/>
    </edge>
    <edge id=":3382183124_0" function="internal">
        <lane id=":3382183124_0_0" index="0" disallow="tram rail_urban rail rail_electric rail_fast ship" speed="7.37" length="8.72" shape="16123.47,14620.51 16121.71,14622.56 16120.68,14624.53 16120.39,14626.43 16120.83,14628.25"/>
    </edge>
    <edge id=":3382183124_1" function="internal">
        <lane id=":3382183124_1_0" index="0" disallow="tram rail_urban rail rail_electric rail_fast ship" speed="8.77" length="12.64" shape="16121.23,14618.23 16118.83,14621.09 16117.47,14623.93 16117.17,14626.76 16117.92,14629.57"/>
    </edge>
    <edge id=":3382183124_2" function="internal">
        <lane id=":3382183124_2_0" index="0" disallow="tram rail_urban rail rail_electric rail_fast ship" speed="9.39" length="14.62" shape="16118.99,14615.94 16117.04,14618.64 16116.21,14621.81 16116.50,14625.45 16117.92,14629.57"/>
    </edge>
    <edge id=":3382183124_3" function="internal">
        <lane id=":3382183124_3_0" index="0" disallow="tram rail_urban rail rail_electric rail_fast ship" speed="10.52" length="18.55" shape="16116.75,14613.65 16114.16,14617.16 16113.00,14621.21 16113.28,14625.78 16115.00,14630.89"/>
    </edge>
    <edge id=":3382183124_4" function="internal">
        <lane id=":3382183124_4_0" index="0" disallow="tram rail_urban rail rail_electric rail_fast ship" speed="27.78" length="16.98" shape="16110.53,14613.58 16114.26,14617.43 16116.64,14620.26 16118.54,14623.42 16120.83,14628.25"/>
        <lane id=":3382183124_4_1" index="1" disallow="tram rail_urban rail rail_electric rail_fast ship" speed="27.78" length="16.98" shape="16108.24,14615.81 16111.74,14619.43 16113.98,14622.08 16115.77,14625.04 16117.92,14629.57"/>
        <lane id=":3382183124_4_2" index="2" disallow="tram rail_urban rail rail_electric rail_fast ship" speed="27.78" length="16.98" shape="16105.95,14618.05 16109.22,14621.42 16111.32,14623.90 16112.99,14626.66 16115.00,14630.89"/>
    </edge>
    <edge id=":3382183129_0" function="internal">
        <lane id=":3382183129_0_0" index="0" disallow="tram rail_urban rail rail_electric rail_fast ship" speed="14.27" length="11.11" shape="16040.99,14703.57 16037.37,14702.17 16034.91,14700.96 16032.91,14699.18 16030.69,14696.07"/>
        <lane id=":3382183129_0_1" index="1" disallow="tram rail_urban rail rail_electric rail_fast ship" speed="13.16" length="11.11" shape="16042.17,14700.60 16039.09,14699.42 16036.99,14698.43 16035.28,14696.96 16033.38,14694.34"/>
        <lane id=":3382183129_0_2" index="2" disallow="tram rail_urban rail rail_electric rail_fast ship" speed="11.94" length="11.11" shape="16043.35,14697.62 16040.81,14696.68 16039.06,14695.90 16037.64,14694.74 16036.07,14692.61"/>
    </edge>
    <edge id=":3382183129_3" function="internal">
        <lane id=":3382183129_3_0" index="0" disallow="tram rail_urban rail rail_electric rail_fast ship" speed="8.14" length="7.55" shape="16030.34,14703.37 16031.06,14701.07 16031.36,14699.08 16031.23,14697.42 16030.69,14696.07"/>
    </edge>
    <edge id=":3382183129_4" function="internal">
        <lane id=":3382183129_4_0" index="0" disallow="tram rail_urban rail rail_electric rail_fast ship" speed="9.52" length="10.52" shape="16033.33,14704.51 16034.25,14701.46 16034.56,14698.75 16034.27,14696.38 16033.38,14694.34"/>
    </edge>
    <edge id=":3382183129_5" function="internal">
        <lane id=":3382183129_5_0" index="0" disallow="tram rail_urban rail rail_electric rail_fast ship" speed="10.73" length="13.50" shape="16036.32,14705.64 16037.44,14701.85 16037.77,14698.41 16037.31,14695.33 16036.07,14692.61"/>
    </edge>
    <edge id=":3382183139_0" function="internal">
        <lane id=":3382183139_0_0" index="0" disallow="tram rail_urban rail rail_electric rail_fast ship" speed="7.10" length="8.82" shape="16018.45,14655.54 16018.39,14653.52 16017.57,14651.75 16015.99,14650.23 16013.66,14648.96"/>
    </edge>
    <edge id=":3382183139_1" function="internal">
        <lane id=":3382183139_1_0" index="0" disallow="tram rail_urban rail rail_electric rail_fast ship" speed="7.85" length="10.98" shape="16018.45,14655.54 16018.65,14652.11 16018.12,14649.38 16016.88,14647.35 16014.91,14646.01"/>
    </edge>
    <edge id=":3382183139_2" function="internal">
        <lane id=":3382183139_2_0" index="0" disallow="tram rail_urban rail rail_electric rail_fast ship" speed="9.15" length="15.22" shape="16021.61,14656.01 16021.83,14651.45 16020.99,14647.77 16019.10,14644.98 16016.16,14643.07"/>
    </edge>
    <edge id=":3382183139_3" function="internal">
        <lane id=":3382183139_3_0" index="0" disallow="tram rail_urban rail rail_electric rail_fast ship" speed="27.78" length="14.89" shape="16021.61,14656.01 16022.31,14651.57 16022.94,14648.56 16023.78,14645.60 16025.15,14641.31"/>
        <lane id=":3382183139_3_1" index="1" disallow="tram rail_urban rail rail_electric rail_fast ship" speed="27.78" length="14.89" shape="16024.78,14656.48 16025.45,14652.19 16026.06,14649.28 16026.88,14646.42 16028.20,14642.28"/>
    </edge>
    <edge id=":3382183141_0" function="internal">
        <lane id=":3382183141_0_0" index="0" disallow="tram rail_urban rail rail_electric rail_fast ship" speed="7.37" length="9.15" shape="16125.61,14651.82 16125.91,14653.76 16126.98,14655.44 16128.82,14656.87 16131.43,14658.05"/>
    </edge>
    <edge id=":3382183141_1" function="internal">
        <lane id=":3382183141_1_0" index="0" disallow="tram rail_urban rail rail_electric rail_fast ship" speed="8.09" length="11.19" shape="16125.61,14651.82 16125.80,14655.20 16126.65,14657.87 16128.18,14659.83 16130.37,14661.07"/>
    </edge>
    <edge id=":3382183141_2" function="internal">
        <lane id=":3382183141_2_0" index="0" disallow="tram rail_urban rail rail_electric rail_fast ship" speed="9.37" length="15.27" shape="16122.41,14651.70 16122.70,14656.16 16123.95,14659.71 16126.15,14662.35 16129.30,14664.09"/>
    </edge>
    <edge id=":3382183141_3" function="internal">
        <lane id=":3382183141_3_0" index="0" disallow="tram rail_urban rail rail_electric rail_fast ship" speed="27.78" length="14.94" shape="16122.41,14651.70 16122.21,14656.19 16121.95,14659.25 16121.51,14662.30 16120.77,14666.73"/>
        <lane id=":3382183141_3_1" index="1" disallow="tram rail_urban rail rail_electric rail_fast ship" speed="27.78" length="14.94" shape="16119.21,14651.58 16119.01,14655.94 16118.76,14658.92 16118.34,14661.89 16117.61,14666.20"/>
    </edge>
    <edge id=":3382183149_0" function="internal">
        <lane id=":3382183149_0_0" index="0" disallow="tram rail_urban rail rail_electric rail_fast ship" speed="27.78" length="14.60" shape="14360.04,13996.56 14345.88,13992.57"/>
        <lane id=":3382183149_0_1" index="1" disallow="tram rail_urban rail rail_electric rail_fast ship" speed="27.78" length="14.60" shape="14360.79,13993.45 14346.86,13989.52"/>
    </edge>
    <edge id=":3382183149_2" function="internal">
        <lane id=":3382183149_2_0" index="0" disallow="tram rail_urban rail rail_electric rail_fast ship" speed="6.44" length="4.38" shape="14360.79,13993.45 14358.49,13992.53 14357.15,13991.18"/>
    </edge>
    <edge id=":3382183149_6" function="internal">
        <lane id=":3382183149_6_0" index="0" disallow="tram rail_urban rail rail_electric rail_fast ship" speed="6.44" length="4.66" shape="14357.15,13991.18 14357.06,13991.09 14356.51,13989.13 14356.83,13986.65"/>
    </edge>
    <edge id=":3382183149_3" function="internal">
        <lane id=":3382183149_3_0" index="0" disallow="tram rail_urban rail rail_electric rail_fast ship" speed="6.55" length="9.13" shape="14349.64,13999.64 14350.04,13997.20 14349.55,13995.21 14348.16,13993.67 14345.88,13992.57"/>
    </edge>
    <edge id=":3382183149_4" function="internal">
        <lane id=":3382183149_4_0" index="0" disallow="tram rail_urban rail rail_electric rail_fast ship" speed="27.78" length="14.49" shape="14349.64,13999.64 14353.74,13985.80"/>
        <lane id=":3382183149_4_1" index="1" disallow="tram rail_urban rail rail_electric rail_fast ship" speed="27.78" length="14.49" shape="14352.69,14000.61 14356.83,13986.65"/>
    </edge>
    <edge id=":3382183161_0" function="internal">
        <lane id=":3382183161_0_0" index="0" disallow="tram rail_urban rail rail_electric rail_fast ship" speed="8.65" length="9.22" shape="16091.46,14604.24 16093.05,14604.21 16094.90,14603.50 16097.00,14602.11 16099.35,14600.03"/>
    </edge>
    <edge id=":3382183161_1" function="internal">
        <lane id=":3382183161_1_0" index="0" disallow="tram rail_urban rail rail_electric rail_fast ship" speed="9.29" length="10.72" shape="16091.46,14604.24 16094.61,14604.66 16097.34,14604.47 16099.66,14603.70 16101.58,14602.33"/>
    </edge>
    <edge id=":3382183161_2" function="internal">
        <lane id=":3382183161_2_0" index="0" disallow="tram rail_urban rail rail_electric rail_fast ship" speed="10.03" length="12.59" shape="16091.46,14604.24 16096.16,14605.10 16099.78,14605.45 16102.33,14605.29 16103.81,14604.62"/>
    </edge>
    <edge id=":3382183161_3" function="internal">
        <lane id=":3382183161_3_0" index="0" disallow="tram rail_urban rail rail_electric rail_fast ship" speed="27.78" length="13.30" shape="16091.46,14604.24 16095.55,14605.24 16098.25,14606.24 16100.83,14607.61 16104.51,14609.68"/>
        <lane id=":3382183161_3_1" index="1" disallow="tram rail_urban rail rail_electric rail_fast ship" speed="27.78" length="13.30" shape="16090.80,14607.37 16094.61,14608.31 16097.14,14609.26 16099.53,14610.55 16102.97,14612.49"/>
        <lane id=":3382183161_3_2" index="2" disallow="tram rail_urban rail rail_electric rail_fast ship" speed="27.78" length="13.30" shape="16090.13,14610.50 16093.68,14611.38 16096.02,14612.27 16098.24,14613.49 16101.44,14615.30"/>
    </edge>
    <edge id=":3382183168_0" function="internal">
        <lane id=":3382183168_0_0" index="0" disallow="tram rail_urban rail rail_electric rail_fast ship" speed="27.78" length="11.48" shape="15368.22,14368.36 15357.72,14363.90"/>
        <lane id=":3382183168_0_1" index="1" disallow="tram rail_urban rail rail_electric rail_fast ship" speed="27.78" length="11.48" shape="15369.56,14365.46 15358.93,14360.93"/>
    </edge>
    <edge id=":3382183168_2" function="internal">
        <lane id=":3382183168_2_0" index="0" disallow="tram rail_urban rail rail_electric rail_fast ship" speed="5.73" length="9.19" shape="15364.50,14356.84 15364.36,14359.57 15363.38,14361.16 15361.57,14361.61 15358.93,14360.93"/>
    </edge>
    <edge id=":3382183172_0" function="internal">
        <lane id=":3382183172_0_0" index="0" disallow="tram rail_urban rail rail_electric rail_fast ship" speed="6.85" length="8.04" shape="16064.47,14710.78 16062.49,14710.88 16060.82,14711.62 16059.45,14713.01 16058.38,14715.04"/>
    </edge>
    <edge id=":3382183172_1" function="internal">
        <lane id=":3382183172_1_0" index="0" disallow="tram rail_urban rail rail_electric rail_fast ship" speed="7.65" length="10.26" shape="16064.47,14710.78 16061.07,14710.68 16058.42,14711.16 16056.54,14712.23 16055.40,14713.87"/>
    </edge>
    <edge id=":3382183172_2" function="internal">
        <lane id=":3382183172_2_0" index="0" disallow="tram rail_urban rail rail_electric rail_fast ship" speed="8.98" length="14.44" shape="16064.80,14707.60 16060.28,14707.53 16056.72,14708.36 16054.09,14710.08 16052.42,14712.71"/>
    </edge>
    <edge id=":3382183172_3" function="internal">
        <lane id=":3382183172_3_0" index="0" disallow="tram rail_urban rail rail_electric rail_fast ship" speed="27.78" length="13.56" shape="16064.80,14707.60 16060.65,14707.10 16057.84,14706.49 16055.16,14705.44 16051.38,14703.64"/>
        <lane id=":3382183172_3_1" index="1" disallow="tram rail_urban rail rail_electric rail_fast ship" speed="27.78" length="13.56" shape="16065.13,14704.42 16061.32,14703.96 16058.73,14703.39 16056.25,14702.42 16052.78,14700.76"/>
    </edge>
    <edge id=":3382183191_0" function="internal">
        <lane id=":3382183191_0_0" index="0" disallow="tram rail_urban rail rail_electric rail_fast ship" speed="7.34" length="8.13" shape="16123.00,14686.81 16120.57,14686.36 16118.50,14686.45 16116.80,14687.08 16115.46,14688.25"/>
    </edge>
    <edge id=":3382183191_1" function="internal">
        <lane id=":3382183191_1_0" index="0" disallow="tram rail_urban rail rail_electric rail_fast ship" speed="8.76" length="11.87" shape="16123.85,14683.73 16120.45,14683.13 16117.50,14683.35 16115.00,14684.39 16112.96,14686.25"/>
    </edge>
    <edge id=":3382183191_2" function="internal">
        <lane id=":3382183191_2_0" index="0" disallow="tram rail_urban rail rail_electric rail_fast ship" speed="9.97" length="15.62" shape="16124.71,14680.65 16120.33,14679.91 16116.50,14680.26 16113.21,14681.71 16110.47,14684.24"/>
    </edge>
    <edge id=":3382183191_3" function="internal">
        <lane id=":3382183191_3_0" index="0" disallow="tram rail_urban rail rail_electric rail_fast ship" speed="25.54" length="13.24" shape="16121.82,14675.42 16120.59,14679.53 16119.55,14682.31 16118.05,14684.85 16115.46,14688.25"/>
        <lane id=":3382183191_3_1" index="1" disallow="tram rail_urban rail rail_electric rail_fast ship" speed="24.43" length="13.24" shape="16118.75,14674.50 16117.63,14678.26 16116.69,14680.81 16115.33,14683.14 16112.96,14686.25"/>
        <lane id=":3382183191_3_2" index="2" disallow="tram rail_urban rail rail_electric rail_fast ship" speed="23.27" length="13.24" shape="16115.69,14673.58 16114.67,14677.00 16113.83,14679.31 16112.61,14681.42 16110.47,14684.24"/>
    </edge>
    <edge id=":3382183197_0" function="internal">
        <lane id=":3382183197_0_0" index="0" disallow="tram rail_urban rail rail_electric rail_fast ship" speed="8.13" length="10.33" shape="16027.37,14618.74 16030.67,14619.88 16033.40,14620.31 16035.57,14620.04 16037.18,14619.06"/>
    </edge>
    <edge id=":3382183197_1" function="internal">
        <lane id=":3382183197_1_0" index="0" disallow="tram rail_urban rail rail_electric rail_fast ship" speed="9.41" length="14.10" shape="16026.14,14621.69 16030.40,14623.10 16034.04,14623.50 16037.05,14622.91 16039.45,14621.32"/>
    </edge>
    <edge id=":3382183197_2" function="internal">
        <lane id=":3382183197_2_0" index="0" disallow="tram rail_urban rail rail_electric rail_fast ship" speed="9.97" length="15.91" shape="16024.91,14624.64 16028.79,14625.68 16032.51,14625.47 16036.06,14624.01 16039.45,14621.32"/>
    </edge>
    <edge id=":3382183197_3" function="internal">
        <lane id=":3382183197_3_0" index="0" disallow="tram rail_urban rail rail_electric rail_fast ship" speed="11.05" length="19.72" shape="16023.67,14627.60 16028.52,14628.90 16033.14,14628.66 16037.54,14626.89 16041.72,14623.57"/>
    </edge>
    <edge id=":3382183197_4" function="internal">
        <lane id=":3382183197_4_0" index="0" disallow="tram rail_urban rail rail_electric rail_fast ship" speed="27.78" length="18.12" shape="16025.21,14633.22 16028.50,14628.80 16030.83,14625.82 16033.33,14623.00 16037.18,14619.06"/>
        <lane id=":3382183197_4_1" index="1" disallow="tram rail_urban rail rail_electric rail_fast ship" speed="27.78" length="18.12" shape="16027.77,14635.13 16030.98,14630.82 16033.25,14627.91 16035.69,14625.16 16039.45,14621.32"/>
        <lane id=":3382183197_4_2" index="2" disallow="tram rail_urban rail rail_electric rail_fast ship" speed="27.78" length="18.12" shape="16030.33,14637.05 16033.47,14632.85 16035.67,14630.01 16038.06,14627.32 16041.72,14623.57"/>
    </edge>
    <edge id=":4050649075_0" function="internal">
        <lane id=":4050649075_0_0" index="0" disallow="tram rail_urban rail rail_electric rail_fast ship" speed="27.78" length="0.30" shape="15834.42,14571.61 15834.07,14571.45"/>
        <lane id=":4050649075_0_1" index="1" disallow="tram rail_urban rail rail_electric rail_fast ship" speed="27.78" length="0.30" shape="15835.66,14568.66 15835.39,14568.54"/>
        <lane id=":4050649075_0_2" index="2" disallow="tram rail_urban rail rail_electric rail_fast ship" speed="27.78" length="0.30" shape="15836.89,14565.71 15836.71,14565.62"/>
    </edge>
    <edge id=":4942999969_0" function="internal">
        <lane id=":4942999969_0_0" index="0" disallow="tram rail_urban rail rail_electric rail_fast ship" speed="27.78" length="0.48" shape="16382.10,14728.09 16382.15,14728.10 16382.18,14728.11 16382.21,14728.12 16382.26,14728.12"/>
        <lane id=":4942999969_0_1" index="1" disallow="tram rail_urban rail rail_electric rail_fast ship" speed="27.78" length="0.48" shape="16381.26,14731.18 16381.40,14731.21 16381.49,14731.24 16381.59,14731.26 16381.73,14731.28"/>
        <lane id=":4942999969_0_2" index="2" disallow="tram rail_urban rail rail_electric rail_fast ship" speed="27.78" length="0.48" shape="16380.41,14734.26 16380.64,14734.33 16380.80,14734.36 16380.96,14734.40 16381.20,14734.44"/>
    </edge>
    <edge id=":4943000015_0" function="internal">
        <lane id=":4943000015_0_0" index="0" disallow="tram rail_urban rail rail_electric rail_fast ship" speed="27.78" length="0.27" shape="16320.45,14415.64 16320.81,14415.38"/>
        <lane id=":4943000015_0_1" index="1" disallow="tram rail_urban rail rail_electric rail_fast ship" speed="27.78" length="0.27" shape="16322.36,14418.20 16322.58,14418.05"/>
        <lane id=":4943000015_0_2" index="2" disallow="tram rail_urban rail rail_electric rail_fast ship" speed="27.78" length="0.27" shape="16324.28,14420.76 16324.35,14420.71"/>
    </edge>
    <edge id=":8342188642_0" function="internal">
        <lane id=":8342188642_0_0" index="0" disallow="tram rail_urban rail rail_electric rail_fast ship" speed="27.78" length="0.36" shape="15972.05,14994.32 15972.02,14994.43"/>
        <lane id=":8342188642_0_1" index="1" disallow="tram rail_urban rail rail_electric rail_fast ship" speed="27.78" length="0.36" shape="15968.98,14993.41 15968.89,14993.76"/>
        <lane id=":8342188642_0_2" index="2" disallow="tram rail_urban rail rail_electric rail_fast ship" speed="27.78" length="0.36" shape="15965.91,14992.50 15965.76,14993.08"/>
    </edge>
    <edge id=":8342188643_0" function="internal">
        <lane id=":8342188643_0_0" index="0" disallow="tram rail_urban rail rail_electric rail_fast ship" speed="27.78" length="0.27" shape="15944.59,14986.76 15944.67,14986.42"/>
        <lane id=":8342188643_0_1" index="1" disallow="tram rail_urban rail rail_electric rail_fast ship" speed="27.78" length="0.27" shape="15947.71,14987.45 15947.77,14987.19"/>
        <lane id=":8342188643_0_2" index="2" disallow="tram rail_urban rail rail_electric rail_fast ship" speed="27.78" length="0.27" shape="15950.83,14988.15 15950.88,14987.95"/>
    </edge>
    <edge id=":gneJ0_0" function="internal">
        <lane id=":gneJ0_0_0" index="0" disallow="tram rail_urban rail rail_electric rail_fast ship" speed="20.84" length="10.22" shape="16165.60,14579.94 16163.62,14582.15 16162.78,14584.10 16162.01,14586.12 16160.28,14588.53"/>
    </edge>
    <edge id=":gneJ0_1" function="internal">
        <lane id=":gneJ0_1_0" index="0" disallow="tram rail_urban rail rail_electric rail_fast ship" speed="27.78" length="10.48" shape="16165.60,14579.94 16158.16,14586.54"/>
        <lane id=":gneJ0_1_1" index="1" disallow="tram rail_urban rail rail_electric rail_fast ship" speed="27.78" length="10.48" shape="16163.53,14577.50 16155.83,14584.34"/>
        <lane id=":gneJ0_1_2" index="2" disallow="tram rail_urban rail rail_electric rail_fast ship" speed="27.78" length="10.48" shape="16161.46,14575.06 16153.50,14582.15"/>
        <lane id=":gneJ0_1_3" index="3" disallow="tram rail_urban rail rail_electric rail_fast ship" speed="27.78" length="10.48" shape="16159.39,14572.62 16151.17,14579.95"/>
    </edge>
    <edge id=":gneJ0_5" function="internal">
        <lane id=":gneJ0_5_0" index="0" disallow="tram rail_urban rail rail_electric rail_fast ship" speed="6.58" length="9.09" shape="16159.39,14572.62 16157.30,14573.93 16155.27,14574.27 16153.30,14573.62 16151.40,14572.00"/>
    </edge>
    <edge id=":gneJ10_0" function="internal">
        <lane id=":gneJ10_0_0" index="0" disallow="tram rail_urban rail rail_electric rail_fast ship" speed="20.84" length="20.40" shape="16156.33,14662.86 16159.70,14664.79 16163.53,14667.01 16168.36,14669.30 16174.73,14671.50"/>
    </edge>
    <edge id=":gneJ10_1" function="internal">
        <lane id=":gneJ10_1_0" index="0" disallow="tram rail_urban rail rail_electric rail_fast ship" speed="27.78" length="20.77" shape="16154.84,14666.30 16174.73,14671.50"/>
        <lane id=":gneJ10_1_1" index="1" disallow="tram rail_urban rail rail_electric rail_fast ship" speed="27.78" length="20.77" shape="16153.77,14669.32 16173.86,14674.58"/>
        <lane id=":gneJ10_1_2" index="2" disallow="tram rail_urban rail rail_electric rail_fast ship" speed="27.78" length="20.77" shape="16152.71,14672.34 16172.99,14677.66"/>
    </edge>
    <edge id=":gneJ14_0" function="internal">
        <lane id=":gneJ14_0_0" index="0" disallow="tram rail_urban rail rail_electric rail_fast ship" speed="20.84" length="19.79" shape="15959.35,14586.95 15965.50,14589.12 15970.54,14590.21 15974.79,14590.83 15978.54,14591.59"/>
    </edge>
    <edge id=":gneJ14_1" function="internal">
        <lane id=":gneJ14_1_0" index="0" disallow="tram rail_urban rail rail_electric rail_fast ship" speed="27.78" length="19.45" shape="15959.35,14586.95 15977.18,14595.20"/>
        <lane id=":gneJ14_1_1" index="1" disallow="tram rail_urban rail rail_electric rail_fast ship" speed="27.78" length="19.45" shape="15958.10,14589.90 15975.81,14598.09"/>