<?xml version="1.0" encoding="UTF-8"?>

<!-- generated on 04/25/22 19:07:51 by Eclipse SUMO netedit Version 1.8.0
<configuration xmlns:xsi="http://www.w3.org/2001/XMLSchema-instance" xsi:noNamespaceSchemaLocation="http://sumo.dlr.de/xsd/netconvertConfiguration.xsd">

    <input>
        <sumo-net-file value="C:\Users\hongtao45\Desktop\WuHan-0420\map.net.xml"/>
    </input>

    <output>
        <output-file value="C:\Users\hongtao45\Desktop\WuHan-0420\map.net.xml"/>
    </output>

    <processing>
        <geometry.min-radius.fix.railways value="false"/>
        <geometry.max-grade.fix value="false"/>
        <offset.disable-normalization value="true"/>
        <lefthand value="false"/>
    </processing>

    <junctions>
        <no-turnarounds value="true"/>
        <junctions.corner-detail value="5"/>
        <junctions.limit-turn-speed value="5.5"/>
        <rectangular-lane-cut value="false"/>
    </junctions>

    <pedestrian>
        <walkingareas value="false"/>
    </pedestrian>

    <netedit>
        <additional-files value="C:\Users\hongtao45\Desktop\WuHan-0420\map.add.xml"/>
    </netedit>

    <report>
        <aggregate-warnings value="5"/>
    </report>

</configuration>
-->

<additional xmlns:xsi="http://www.w3.org/2001/XMLSchema-instance" xsi:noNamespaceSchemaLocation="http://sumo.dlr.de/xsd/additional_file.xsd">
    <poly id="1032512099" type="amenity" color="237,199,199" fill="1" layer="-1.00" shape="15517.379443,15656.318534 15614.026850,15673.436340 15608.484602,15572.178420 15544.843531,15548.147674 15532.094918,15554.536369 15517.379443,15656.318534"/>
    <poly id="1032512099#1" type="building" color="255,230,230" fill="1" layer="-1.00" shape="15517.379443,15656.318534 15614.026850,15673.436340 15608.484602,15572.178420 15544.843531,15548.147674 15532.094918,15554.536369 15517.379443,15656.318534"/>
    <poly id="107270927" type="building" color="255,230,230" fill="1" layer="-1.00" shape="15158.985884,15071.288712 15190.313072,15084.441127 15186.774262,15092.803465 15155.437503,15079.651295 15158.985884,15071.288712"/>
    <poly id="107270929" type="building" color="255,230,230" fill="1" layer="-1.00" shape="15209.675388,15032.692713 15212.657933,15024.732186 15248.004622,15037.864929 15245.021787,15045.814356 15209.675388,15032.692713"/>
    <poly id="107270934" type="building" color="255,230,230" fill="1" layer="-1.00" shape="14995.910415,14878.252832 15038.245161,14895.841711 15030.581231,14914.100673 15046.243533,14920.610175 15053.789828,14902.642538 15095.184318,14919.843948 15076.609328,14964.095795 15033.140939,14946.035061 15039.508230,14930.880746 15025.958858,14925.251901 15019.800814,14939.935177 14995.532336,14929.862519 14989.029351,14945.352995 15010.138555,14954.126614 15002.664777,14971.915021 15022.077621,14979.975415 15029.578304,14962.108709 15067.977743,14978.062459 15049.656663,15021.698016 15011.858287,15005.996017 15020.783041,14984.744192 14998.811372,14975.614284 14989.923120,14996.787583 14951.320090,14980.750292 14968.851629,14938.986493 14979.997481,14943.619645 14986.681997,14927.703164 14976.864038,14923.625772 14995.910415,14878.252832"/>
    <poly id="107270939" type="building" color="255,230,230" fill="1" layer="-1.00" shape="15147.610915,14993.148895 15168.694905,14942.368236 15225.909028,14965.865191 15209.021693,15006.536695 15218.586407,15010.465103 15214.389814,15020.585217 15147.610915,14993.148895"/>
    <poly id="107270940" type="building" color="255,230,230" fill="1" layer="-1.00" shape="15165.632919,15018.628336 15169.237249,15010.197836 15206.499989,15025.979923 15202.895369,15034.399321 15165.632919,15018.628336"/>
    <poly id="107270941" type="building" color="255,230,230" fill="1" layer="-1.00" shape="15209.060378,15039.375414 15284.729636,15067.484022 15267.318920,15113.870689 15191.650186,15085.773308"/>
    <poly id="107270946" type="building" color="255,230,230" fill="1" layer="-1.00" shape="15137.313670,15017.551448 15200.501480,15041.313784 15187.533182,15075.444377 15159.531684,15064.918329 15156.087084,15073.999535 15135.502140,15066.255823 15139.533385,15055.651524 15124.922866,15050.170362 15137.313670,15017.551448"/>
    <poly id="107270961" type="building" color="255,230,230" fill="1" layer="-1.00" shape="15223.459179,15020.309743 15241.829055,14976.285057 15231.585326,14972.051357 15236.182070,14961.022895 15298.486893,14986.748763 15292.266795,15001.655247 15302.675086,15005.951577 15283.452662,15052.016013 15253.613536,15039.692608 15256.079604,15033.774912 15223.459179,15020.309743"/>
    <poly id="107270971" type="building" color="255,230,230" fill="1" layer="-1.00" shape="15131.355336,15002.907079 15135.727880,14993.714594 15160.049135,15005.184167 15155.676308,15014.365553 15131.355336,15002.907079"/>
    <poly id="131361924" type="tourism" color="207,245,201" fill="1" layer="-2.00" shape="15967.119182,14866.523001 15999.883532,14753.066956 16007.662880,14712.927907 16008.057709,14686.802149 16000.410935,14668.548175 15985.844694,14656.563457 15959.672338,14638.757530 15846.105069,14587.275345 15853.741575,14833.885765 15967.119182,14866.523001"/>
    <poly id="140621778" type="leisure" color="207,245,201" fill="1" layer="-2.00" shape="16189.934472,15695.323244 16224.209305,15708.318373 16202.773742,15768.879374 16168.732796,15755.235197 16189.934472,15695.323244"/>
    <poly id="140621778#1" type="sport" color="79,230,125" fill="1" layer="-2.00" shape="16189.934472,15695.323244 16224.209305,15708.318373 16202.773742,15768.879374 16168.732796,15755.235197 16189.934472,15695.323244"/>
    <poly id="140621782" type="leisure" color="207,245,201" fill="1" layer="-2.00" shape="16207.142545,15768.640635 16298.030438,15802.800344 16354.250538,15648.461541 16265.916117,15613.218872 16207.142545,15768.640635"/>
    <poly id="140621785" type="leisure" color="207,245,201" fill="1" layer="-2.00" shape="16186.871180,15686.865704 16223.875389,15701.647619 16234.520450,15670.536824 16199.607652,15655.759782 16186.871180,15686.865704"/>
    <poly id="140621785#1" type="sport" color="79,230,125" fill="1" layer="-2.00" shape="16186.871180,15686.865704 16223.875389,15701.647619 16234.520450,15670.536824 16199.607652,15655.759782 16186.871180,15686.865704"/>
    <poly id="482218329" type="water" color="181,209,209" fill="0" layer="-4.00" shape="15738.464064,15562.895060 15748.782193,15648.682584"/>
    <poly id="482218330" type="water" color="181,209,209" fill="0" layer="-4.00" shape="15780.501979,15084.506114 15770.196827,15130.431322 15763.474359,15160.671052"/>
    <poly id="50643251" type="commercial" color="209,209,204" fill="1" layer="-3.00" shape="15819.077869,14366.828807 15844.372280,14518.831480 15863.368819,14537.842555 16002.530396,14588.761498 16019.019073,14589.383479 16039.472833,14583.763324 16049.470580,14577.031387 16061.756134,14568.890636 16081.764476,14544.842463 16080.011354,14515.185169 16065.704146,14476.611920 16025.494010,14346.470551 15819.077869,14366.828807"/>
    <poly id="533424947" type="leisure" color="207,245,201" fill="1" layer="-2.00" shape="17434.996093,14908.280330 17507.428059,14906.971178 17507.404067,14799.035736 17433.213415,14798.257019 17434.996093,14908.280330"/>
    <poly id="533424947#1" type="sport" color="79,230,125" fill="1" layer="-2.00" shape="17434.996093,14908.280330 17507.428059,14906.971178 17507.404067,14799.035736 17433.213415,14798.257019 17434.996093,14908.280330"/>
    <poly id="533424948" type="water" color="181,209,209" fill="1" layer="-4.00" shape="16682.285623,14509.673794 16676.786628,14492.510358 16686.324271,14488.563735 16696.324867,14481.932223 16704.085514,14482.277598 16733.279945,14473.064261 16758.644535,14461.791046 16784.201364,14458.490076 16823.933048,14445.794529 16834.451785,14441.946435 16845.047225,14441.280571 16890.628709,14430.851758 16893.905124,14447.769284 16850.799722,14464.195906 16840.256859,14455.896295 16821.698952,14470.133834 16789.633343,14478.850330 16763.202255,14477.723547 16758.953189,14488.520918 16727.829495,14494.119581 16682.285623,14509.673794"/>
    <poly id="537272029" type="building" color="255,230,230" fill="1" layer="-1.00" shape="16424.455846,15447.078166 16445.711493,15455.262858 16443.365716,15460.223214 16457.061380,15466.016592 16451.395479,15477.303246 16436.920251,15471.406663 16438.407858,15468.253222 16418.841111,15460.482628 16417.138339,15463.863156 16402.561672,15458.534879 16407.645775,15446.596585 16422.001930,15451.930195 16424.455846,15447.078166"/>
    <poly id="537272031" type="building" color="255,230,230" fill="1" layer="-1.00" shape="16490.818770,15472.668024 16537.259325,15489.275669 16568.791449,15524.171813 16558.403847,15530.224891 16529.302616,15498.265571 16486.255896,15483.151420 16490.818770,15472.668024"/>
    <poly id="537272033" type="building" color="255,230,230" fill="1" layer="-1.00" shape="16395.223833,15486.392564 16470.287054,15515.122647 16464.565018,15528.851412 16389.071802,15500.586631 16395.223833,15486.392564"/>
    <poly id="537272036" type="building" color="255,230,230" fill="1" layer="-1.00" shape="16384.290012,15516.300819 16459.572472,15544.581742 16454.080580,15558.304959 16378.809174,15530.478684 16384.290012,15516.300819"/>
    <poly id="537272038" type="building" color="255,230,230" fill="1" layer="-1.00" shape="16373.805769,15545.754458 16448.626457,15573.591575 16442.260377,15588.456443 16367.219245,15560.624702 16373.805769,15545.754458"/>
    <poly id="537272041" type="building" color="255,230,230" fill="1" layer="-1.00" shape="16374.183804,15580.071329 16409.656074,15592.594357 16407.954455,15596.418637 16435.051110,15605.349760 16428.899116,15619.543808 16402.037954,15610.828902 16403.080252,15607.908096 16368.273817,15595.147121 16355.930803,15594.113960 16356.230715,15578.729906 16374.183804,15580.071329"/>
    <poly id="537272043" type="building" color="255,230,230" fill="1" layer="-1.00" shape="16447.512558,15620.425623 16519.438370,15648.787945 16513.265737,15662.527567 16441.365914,15634.841421 16447.512558,15620.425623"/>
    <poly id="537272046" type="building" color="255,230,230" fill="1" layer="-1.00" shape="16457.550768,15590.772042 16530.116350,15618.209263 16524.651456,15633.052320 16451.854453,15605.165862 16457.550768,15590.772042"/>
    <poly id="537272049" type="building" color="255,230,230" fill="1" layer="-1.00" shape="16468.936440,15561.296733 16540.841996,15589.204847 16534.914344,15603.160423 16462.568935,15575.706751 16468.936440,15561.296733"/>
    <poly id="537272050" type="building" color="255,230,230" fill="1" layer="-1.00" shape="16546.118537,15575.697674 16558.798331,15544.183167 16541.403440,15538.146139 16528.739746,15570.325943 16546.118537,15575.697674"/>
    <poly id="537272052" type="tourism" color="207,245,201" fill="1" layer="-2.00" shape="16465.815937,15551.653416 16488.600619,15493.246153 16518.700542,15503.780240 16540.396096,15528.607117 16533.292078,15543.112521 16528.642633,15542.459250 16518.195956,15568.317235 16522.349545,15569.492812 16520.652215,15573.893873 16465.815937,15551.653416"/>
    <poly id="537272068" type="building" color="255,230,230" fill="1" layer="-1.00" shape="16207.307554,15353.950429 16241.696485,15368.052386 16235.372535,15384.258789 16212.973309,15375.214572 16209.006950,15387.347846 16216.700562,15390.501313 16213.355737,15400.167705 16192.787282,15392.643592 16207.307554,15353.950429"/>
    <poly id="537272071" type="building" color="255,230,230" fill="1" layer="-1.00" shape="16190.260346,15417.888939 16235.488967,15435.523140 16230.835372,15447.007353 16181.611962,15430.801063 16179.716932,15435.750591 16171.599769,15433.727925 16174.927062,15422.941405 16183.769219,15418.045838 16190.260346,15417.888939"/>
    <poly id="537272074" type="building" color="255,230,230" fill="1" layer="-1.00" shape="16177.414418,15442.496168 16173.995466,15449.490620 16223.690884,15466.573012 16218.865031,15480.058386 16166.018292,15462.386536 16158.962306,15457.431496 16157.668154,15450.329085 16163.407084,15437.709157 16177.414418,15442.496168"/>
    <poly id="537272076" type="building" color="255,230,230" fill="1" layer="-1.00" shape="16241.333779,15399.491548 16273.021781,15412.993197 16266.864492,15426.965583 16235.187238,15413.907470 16241.333779,15399.491548"/>
    <poly id="537272079" type="building" color="255,230,230" fill="1" layer="-1.00" shape="16249.325793,15368.544778 16283.005670,15381.099685 16277.492453,15393.935965 16243.372683,15381.835485 16249.325793,15368.544778"/>
    <poly id="537272081" type="building" color="255,230,230" fill="1" layer="-1.00" shape="16298.570509,15385.627333 16344.013083,15402.591152 16349.387671,15411.813881 16343.456169,15426.002647 16332.390466,15422.253800 16334.446894,15414.848549 16292.874525,15400.032329 16298.570509,15385.627333"/>
    <poly id="537272084" type="building" color="255,230,230" fill="1" layer="-1.00" shape="16287.233535,15417.109746 16328.407927,15433.721749 16329.680342,15430.795376 16341.185695,15434.078730 16337.197797,15445.324917 16324.075693,15448.981332 16281.108382,15432.412671 16287.233535,15417.109746"/>
    <poly id="537272087" type="building" color="255,230,230" fill="1" layer="-1.00" shape="16276.582747,15448.797485 16318.171305,15464.289995 16326.085552,15476.579970 16320.566991,15489.194472 16309.276585,15485.672971 16310.940420,15480.285280 16270.017711,15464.554825 16276.582747,15448.797485"/>
    <poly id="537272090" type="building" color="255,230,230" fill="1" layer="-1.00" shape="16264.124125,15480.307041 16305.281990,15496.242580 16306.957932,15491.753240 16318.275122,15496.383530 16313.856677,15508.072814 16296.735891,15513.390189 16256.705227,15497.649335 16264.124125,15480.307041"/>
    <poly id="537272093" type="building" color="255,230,230" fill="1" layer="-1.00" shape="16159.206093,15477.040494 16211.891479,15497.168067 16205.787927,15513.358080 16152.668317,15493.917799 16159.206093,15477.040494"/>
    <poly id="537272094" type="building" color="255,230,230" fill="1" layer="-1.00" shape="16229.534257,15504.319129 16279.535849,15524.955646 16273.383992,15539.149792 16222.953252,15519.411231 16229.534257,15504.319129"/>
    <poly id="537272097" type="building" color="255,230,230" fill="1" layer="-1.00" shape="16149.072121,15511.833435 16198.386629,15531.820535 16192.245600,15546.458251 16142.502220,15527.380199 16149.072121,15511.833435"/>
    <poly id="537272099" type="building" color="255,230,230" fill="1" layer="-1.00" shape="16214.627823,15536.553586 16265.089529,15557.178906 16258.073961,15572.947151 16207.428442,15553.446846 16214.627823,15536.553586"/>
    <poly id="627994685" type="commercial" color="209,209,204" fill="1" layer="-3.00" shape="14770.698216,14735.877144 14831.758076,14760.798698 14844.437563,14736.526564 14780.493385,14714.126894 14770.698216,14735.877144"/>
    <poly id="766001060" type="building" color="255,230,230" fill="1" layer="-1.00" shape="16983.453551,15177.059335 17436.601776,15291.737251 17450.368848,15237.898443 17425.195434,15231.536755 17427.449421,15222.740251 16999.472577,15114.434285 16983.453551,15177.059335"/>
    <poly id="766001063" type="building" color="255,230,230" fill="1" layer="-1.00" shape="16286.630934,14499.797034 16297.618897,14496.713667 16306.425229,14488.313329 16323.569981,14484.315781 16325.286778,14491.441278 16312.496093,14494.568155 16316.312316,14513.935501 16307.866118,14516.191950 16306.457486,14511.100375 16295.216796,14514.445010 16296.958248,14522.590590 16291.855843,14524.255948 16286.630934,14499.797034"/>
    <poly id="766001065" type="building" color="255,230,230" fill="1" layer="-1.00" shape="16319.636925,14513.344867 16328.844448,14511.624759 16325.432473,14493.501311 16316.224935,14495.221420 16319.636925,14513.344867"/>
    <poly id="766001066" type="building" color="255,230,230" fill="1" layer="-1.00" shape="16312.013969,14517.112452 16321.918616,14569.682413 16340.725102,14566.166182 16330.820547,14513.596210 16312.013969,14517.112452"/>
    <poly id="766001067" type="building" color="255,230,230" fill="1" layer="-1.00" shape="16253.837601,14527.226760 16264.532830,14570.014550 16294.546833,14562.577459 16283.851721,14519.789647 16253.837601,14527.226760"/>
    <poly id="766001068" type="building" color="255,230,230" fill="1" layer="-1.00" shape="16237.165072,14582.934983 16255.391069,14655.473446 16254.772367,14661.634675 16274.961924,14666.527715 16355.094679,14649.481754 16338.114314,14574.860646 16287.139450,14584.800887 16283.212662,14571.582497 16237.165072,14582.934983"/>
    <poly id="766001071" type="building" color="255,230,230" fill="1" layer="-1.00" shape="16053.279256,14513.124377 16010.854130,14354.867942 15849.501013,14397.700686 15874.813966,14496.949040 15883.319950,14508.270351 15951.153979,14536.074088 15959.403158,14536.384923 16053.279256,14513.124377"/>
    <poly id="766001071#1" type="shop" color="237,199,255" fill="1" layer="-1.00" shape="16053.279256,14513.124377 16010.854130,14354.867942 15849.501013,14397.700686 15874.813966,14496.949040 15883.319950,14508.270351 15951.153979,14536.074088 15959.403158,14536.384923 16053.279256,14513.124377"/>
    <poly id="771181290" type="landuse" color="194,194,130" fill="1" layer="-3.00" shape="14280.982381,14483.392292 14446.353240,14510.865855 16031.415206,14907.215538 16137.848222,14924.101932 16392.494598,14951.499098 16474.959727,14967.170246 17388.676341,15199.409813 17468.481487,15222.330223 17685.345678,15305.704222 17882.096185,15387.002495 17877.041890,15401.845913 17593.126177,15323.031154 17479.175659,15335.500806 17411.282534,15337.133899 16824.220449,15236.557531 16623.271885,15183.791460 15919.411757,14925.800609 15061.720809,14714.331878 14343.980888,14523.596806 14276.057142,14502.972031 14280.982381,14483.392292"/>
    <poly id="775228250" type="building" color="255,230,230" fill="1" layer="-1.00" shape="17502.550822,15472.940222 17551.972188,15462.787600 17549.400441,15450.390581 17499.988605,15460.542980 17502.550822,15472.940222"/>
    <poly id="775228251" type="building" color="255,230,230" fill="1" layer="-1.00" shape="17600.415053,15422.704240 17601.611284,15415.797043 17546.576481,15406.358790 17545.380550,15413.277083 17600.415053,15422.704240"/>
    <poly id="775228252" type="building" color="255,230,230" fill="1" layer="-1.00" shape="17431.917667,15435.210113 17435.811663,15418.419559 17328.683987,15393.849388 17324.790407,15410.651079 17431.917667,15435.210113"/>
    <poly id="775228253" type="building" color="255,230,230" fill="1" layer="-1.00" shape="17419.972895,15398.886357 17422.556187,15387.430392 17360.468808,15373.569689 17357.885308,15385.014585 17419.972895,15398.886357"/>
    <poly id="775228254" type="building" color="255,230,230" fill="1" layer="-1.00" shape="17264.726803,15416.700849 17266.688778,15409.331391 17238.206870,15401.818338 17236.235592,15409.199121 17264.726803,15416.700849"/>
    <poly id="775228255" type="building" color="255,230,230" fill="1" layer="-1.00" shape="17298.153770,15426.391465 17300.346142,15419.027564 17269.766037,15410.033919 17267.573682,15417.397827 17298.153770,15426.391465"/>
    <poly id="775228256" type="building" color="255,230,230" fill="1" layer="-1.00" shape="17268.433836,15388.964649 17270.462135,15381.560314 17242.747204,15374.028780 17240.718922,15381.433122 17268.433836,15388.964649"/>
    <poly id="775228257" type="building" color="255,230,230" fill="1" layer="-1.00" shape="17306.547135,15400.839012 17309.347780,15392.439801 17278.219166,15382.183484 17275.418541,15390.582705 17306.547135,15400.839012"/>
    <poly id="775228258" type="building" color="255,230,230" fill="1" layer="-1.00" shape="17068.840165,15339.231254 17091.372868,15345.089905 17093.841714,15335.666846 17071.318582,15329.807958 17068.840165,15339.231254"/>
    <poly id="775228259" type="building" color="255,230,230" fill="1" layer="-1.00" shape="17120.384832,15353.089072 17122.553048,15344.327826 17096.930306,15338.033200 17094.752519,15346.794684 17120.384832,15353.089072"/>
    <poly id="775228260" type="building" color="255,230,230" fill="1" layer="-1.00" shape="17177.977795,15361.953278 17179.921524,15353.031038 17138.279907,15344.048922 17136.335942,15352.960084 17177.977795,15361.953278"/>
    <poly id="775228261" type="building" color="255,230,230" fill="1" layer="-1.00" shape="17233.697100,15378.273875 17235.862527,15370.588873 17194.408663,15359.039249 17192.243261,15366.724261 17233.697100,15378.273875"/>
    <poly id="775228262" type="building" color="255,230,230" fill="1" layer="-1.00" shape="17226.853690,15404.044252 17228.863827,15396.285325 17185.105471,15385.046393 17183.095361,15392.805330 17226.853690,15404.044252"/>
    <poly id="775228263" type="building" color="255,230,230" fill="1" layer="-1.00" shape="17171.430221,15389.247590 17173.514578,15380.588225 17129.515896,15370.131895 17127.431304,15378.780183 17171.430221,15389.247590"/>
    <poly id="775228264" type="building" color="255,230,230" fill="1" layer="-1.00" shape="17202.366370,15113.763645 17206.732154,15097.050390 17154.166644,15083.471812 17149.800665,15100.174005 17202.366370,15113.763645"/>
    <poly id="775228265" type="building" color="255,230,230" fill="1" layer="-1.00" shape="17113.710639,14840.904037 17146.325728,14849.071796 17149.988815,14834.649776 17117.363832,14826.471147 17113.710639,14840.904037"/>
    <poly id="775228266" type="building" color="255,230,230" fill="1" layer="-1.00" shape="17154.478941,14835.052006 17199.028452,14846.782306 17201.553751,14837.302468 17157.004206,14825.572155 17154.478941,14835.052006"/>
    <poly id="775228267" type="building" color="255,230,230" fill="1" layer="-1.00" shape="17208.549600,14868.064931 17236.241001,14874.565291 17240.108126,14858.252373 17212.416687,14851.752000 17208.549600,14868.064931"/>
    <poly id="775228268" type="building" color="255,230,230" fill="1" layer="-1.00" shape="17129.862625,14902.476728 17140.042989,14865.864507 17130.500928,14863.243033 17120.320325,14899.844177 17129.862625,14902.476728"/>
    <poly id="775228269" type="building" color="255,230,230" fill="1" layer="-1.00" shape="17172.331531,14934.992223 17173.937217,14927.964162 17136.161104,14919.410277 17134.555173,14926.427256 17172.331531,14934.992223"/>
    <poly id="775228270" type="building" color="255,230,230" fill="1" layer="-1.00" shape="17227.005415,14950.838906 17229.730707,14940.899393 17192.435373,14930.791640 17189.709845,14940.720077 17227.005415,14950.838906"/>
    <poly id="775228271" type="building" color="255,230,230" fill="1" layer="-1.00" shape="17182.740414,14886.348341 17189.497979,14856.996591 17155.000426,14849.140293 17148.243212,14878.503159 17182.740414,14886.348341"/>
    <poly id="775228272" type="building" color="255,230,230" fill="1" layer="-1.00" shape="17030.782602,14688.490824 17063.435477,14687.449204 17062.830233,14668.692233 17030.177301,14669.733851 17030.782602,14688.490824"/>
    <poly id="775228273" type="building" color="255,230,230" fill="1" layer="-1.00" shape="17042.768988,14759.127967 17075.357268,14755.014799 17072.719390,14734.320900 17040.140636,14738.433841 17042.768988,14759.127967"/>
    <poly id="775228274" type="parking" color="184,184,179" fill="1" layer="-1.00" shape="17156.035509,14781.750848 17108.275061,14764.983548 17130.146480,14689.936556 17179.108824,14703.613023 17156.035509,14781.750848"/>
    <poly id="775228277" type="building" color="255,230,230" fill="1" layer="-1.00" shape="17182.436186,14798.788458 17207.912241,14798.940693 17223.500369,14805.222048 17235.326218,14815.432598 17247.919735,14804.123967 17228.581924,14791.531430 17207.505756,14782.053883 17186.657495,14782.045408 17178.954416,14782.486016 17182.436186,14798.788458"/>
    <poly id="775228278" type="building" color="255,230,230" fill="1" layer="-1.00" shape="17185.175850,14741.620217 17258.264499,14763.158996 17262.080996,14750.319822 17189.001862,14728.780782 17185.175850,14741.620217"/>
    <poly id="775228279" type="building" color="255,230,230" fill="1" layer="-1.00" shape="17449.353384,15015.382974 17476.477381,15019.856205 17480.149135,14997.801268 17453.025085,14993.328024 17449.353384,15015.382974"/>
    <poly id="775228280" type="building" color="255,230,230" fill="1" layer="-1.00" shape="17530.830088,15022.387867 17529.098041,14960.723256 17483.615201,14962.005493 17485.357098,15023.669884 17530.830088,15022.387867"/>
    <poly id="775228281" type="building" color="255,230,230" fill="1" layer="-1.00" shape="17445.243615,14994.491468 17445.937998,14959.139536 17426.866099,14958.777267 17426.171778,14994.129205 17445.243615,14994.491468"/>
    <poly id="775228282" type="building" color="255,230,230" fill="1" layer="-1.00" shape="17325.716010,14978.673028 17417.842699,14978.509120 17417.804444,14956.576675 17325.687156,14956.740340 17325.716010,14978.673028"/>
    <poly id="775228283" type="building" color="255,230,230" fill="1" layer="-1.00" shape="17297.520602,14918.920968 17407.651470,14918.578952 17407.483943,14860.559968 17297.352483,14860.901945 17297.265507,14876.424931 17390.375851,14874.439928 17390.045490,14903.381726 17297.409948,14903.558057 17297.520602,14918.920968"/>
    <poly id="775228284" type="building" color="255,230,230" fill="1" layer="-1.00" shape="17326.267454,14840.902153 17401.623611,14839.089299 17400.386383,14787.652760 17325.029865,14789.465598 17326.267454,14840.902153"/>
    <poly id="775228285" type="building" color="255,230,230" fill="1" layer="-1.00" shape="17359.779705,14714.885959 17412.849146,14717.448043 17414.965370,14674.196087 17385.289387,14670.560913 17359.034556,14694.679035 17359.779705,14714.885959"/>
    <poly id="775228286" type="building" color="255,230,230" fill="1" layer="-1.00" shape="17344.781711,14765.437244 17405.797677,14766.521159 17406.515077,14726.941759 17345.508211,14725.846506 17344.781711,14765.437244"/>
    <poly id="775228291" type="building" color="255,230,230" fill="1" layer="-1.00" shape="17584.531181,14783.480212 17615.771497,14783.561427 17615.803060,14772.100314 17584.562711,14772.019096 17584.531181,14783.480212"/>
    <poly id="775228295" type="building" color="255,230,230" fill="1" layer="-1.00" shape="17573.037979,14851.353732 17631.471610,14852.001707 17631.901090,14813.982506 17573.476841,14813.334284 17573.037979,14851.353732"/>
    <poly id="775228296" type="building" color="255,230,230" fill="1" layer="-1.00" shape="17632.235433,14940.870443 17631.704707,14880.064544 17557.453465,14880.728736 17557.791375,14919.927700 17579.440199,14919.729020 17579.298231,14903.046680 17609.695213,14902.782008 17610.030266,14941.071298 17632.235433,14940.870443"/>
    <poly id="775228297" type="building" color="255,230,230" fill="1" layer="-1.00" shape="17566.177145,14972.634600 17634.941362,14974.820369 17635.409424,14960.364412 17566.645116,14958.178633 17566.177145,14972.634600"/>
    <poly id="775228298" type="building" color="255,230,230" fill="1" layer="-1.00" shape="17569.573180,15038.874406 17636.956477,15037.509904 17636.690773,15024.458361 17569.307394,15025.822859 17569.573180,15038.874406"/>
    <poly id="775315139" type="building" color="255,230,230" fill="1" layer="-1.00" shape="15222.023826,15222.563641 15228.357888,15205.246822 15164.756815,15182.204487 15158.422833,15199.521348 15222.023826,15222.563641"/>
    <poly id="775315140" type="building" color="255,230,230" fill="1" layer="-1.00" shape="15244.222082,15140.602776 15119.199568,15089.095580 15091.612937,15155.355711 15140.072662,15175.137161 15152.904016,15146.446102 15227.402120,15178.898428 15244.222082,15140.602776"/>
    <poly id="775315141" type="building" color="255,230,230" fill="1" layer="-1.00" shape="15104.584392,15282.261440 15109.784106,15268.023047 15079.934504,15257.231449 15074.734551,15271.458771 15104.584392,15282.261440"/>
    <poly id="775315142" type="building" color="255,230,230" fill="1" layer="-1.00" shape="15069.312197,15260.318382 15095.783443,15195.161381 15078.731684,15188.308357 15052.270372,15253.476260 15069.312197,15260.318382"/>
    <poly id="775315143" type="building" color="255,230,230" fill="1" layer="-1.00" shape="15188.532494,15316.325761 15203.686326,15280.156193 15134.285642,15251.363602 15119.122393,15287.533513 15188.532494,15316.325761"/>
    <poly id="775315144" type="building" color="255,230,230" fill="1" layer="-1.00" shape="15153.494470,15410.369667 15157.552543,15400.086447 15111.836805,15382.246514 15107.779035,15392.540841 15153.494470,15410.369667"/>
    <poly id="775315145" type="building" color="255,230,230" fill="1" layer="-1.00" shape="15073.145894,15375.963121 15077.370643,15364.644032 15024.659804,15345.188026 15020.444687,15356.506906 15073.145894,15375.963121"/>
    <poly id="775315448" type="building" color="255,230,230" fill="1" layer="-1.00" shape="14888.913819,15016.070799 14899.609532,14990.715247 14843.974728,14967.492245 14833.279111,14992.847860 14888.913819,15016.070799"/>
    <poly id="775315449" type="building" color="255,230,230" fill="1" layer="-1.00" shape="14862.004793,14883.068829 14883.550149,14827.228310 14860.366194,14818.372167 14838.820930,14874.212738 14862.004793,14883.068829"/>
    <poly id="775315450" type="building" color="255,230,230" fill="1" layer="-1.00" shape="14943.686083,14887.231492 14957.154717,14856.339106 14918.409533,14839.606383 14904.931391,14870.499056 14943.686083,14887.231492"/>
    <poly id="775315451" type="building" color="255,230,230" fill="1" layer="-1.00" shape="14970.535149,14816.673139 14979.804346,14796.167356 14910.344234,14765.080759 14901.074860,14785.575520 14970.535149,14816.673139"/>
    <poly id="775315452" type="building" color="255,230,230" fill="1" layer="-1.00" shape="15047.713602,14847.572735 15056.078781,14826.578623 14992.415991,14801.497183 14984.060496,14822.491118 15047.713602,14847.572735"/>