<?xml version='1.0' encoding='utf-8'?>
<routes>
	<flow begin="0" color="1,0,0" end="900" from="331159364#2.526" id="dong_nan_0" number="65" to="27318402#0.62" />
	<flow begin="0" color="0,1,0" end="900" from="331159364#2.526" id="dong_xi_0" number="162" to="826096563#0" />
	<flow begin="0" color="0,0,1" end="900" from="331159364#2.526" id="dong_bei_0" number="97" to="897570588" />
	<flow begin="0" color="1,0,0" end="900" from="331158296#1" id="xi_bei_0" number="12" to="897570588" />
	<flow begin="0" color="0,1,0" end="900" from="331158296#1" id="xi_dong_0" number="31" to="331159373#1" />
	<flow begin="0" color="0,0,1" end="900" from="331158296#1" id="xi_nan_0" number="19" to="27318402#0.62" />
	<flow begin="0" color="1,0,0" end="900" from="826105809#14" id="nan_xi_0" number="38" to="826096563#0" />
	<flow begin="0" color="0,1,0" end="900" from="826105809#14" id="nan_bei_0" number="96" to="897570588" />
	<flow begin="0" color="0,0,1" end="900" from="826105809#14" id="nan_dong_0" number="57" to="331159373#1" />
	<flow begin="0" color="1,0,0" end="900" from="897570589" id="bei_dong_0" number="32" to="331159373#1" />
	<flow begin="0" color="0,1,0" end="900" from="897570589" id="bei_nan_0" number="81" to="27318402#0.62" />
	<flow begin="0" color="0,0,1" end="900" from="897570589" id="bei_xi_0" number="49" to="826096563#0" />
	<flow begin="900" color="1,0,0" end="1800" from="331159364#2.526" id="dong_nan_1" number="80" to="27318402#0.62" />
	<flow begin="900" color="0,1,0" end="1800" from="331159364#2.526" id="dong_xi_1" number="200" to="826096563#0" />
	<flow begin="900" color="0,0,1" end="1800" from="331159364#2.526" id="dong_bei_1" number="120" to="897570588" />
	<flow begin="900" color="1,0,0" end="1800" from="331158296#1" id="xi_bei_1" number="16" to="897570588" />
	<flow begin="900" color="0,1,0" end="1800" from="331158296#1" id="xi_dong_1" number="41" to="331159373#1" />
	<flow begin="900" color="0,0,1" end="1800" from="331158296#1" id="xi_nan_1" number="25" to="27318402#0.62" />
	<flow begin="900" color="1,0,0" end="1800" from="826105809#14" id="nan_xi_1" number="41" to="826096563#0" />
	<flow begin="900" color="0,1,0" end="1800" from="826105809#14" id="nan_bei_1" number="103" to="897570588" />
	<flow begin="900" color="0,0,1" end="1800" from="826105809#14" id="nan_dong_1" number="62" to="331159373#1" />
	<flow begin="900" color="1,0,0" end="1800" from="897570589" id="bei_dong_1" number="44" to="331159373#1" />
	<flow begin="900" color="0,1,0" end="1800" from="897570589" id="bei_nan_1" number="111" to="27318402#0.62" />
	<flow begin="900" color="0,0,1" end="1800" from="897570589" id="bei_xi_1" number="67" to="826096563#0" />
	<flow begin="1800" color="1,0,0" end="2700" from="331159364#2.526" id="dong_nan_2" number="76" to="27318402#0.62" />
	<flow begin="1800" color="0,1,0" end="2700" from="331159364#2.526" id="dong_xi_2" number="190" to="826096563#0" />
	<flow begin="1800" color="0,0,1" end="2700" from="331159364#2.526" id="dong_bei_2" number="114" to="897570588" />
	<flow begin="1800" color="1,0,0" end="2700" from="331158296#1" id="xi_bei_2" number="31" to="897570588" />
	<flow begin="1800" color="0,1,0" end="2700" from="331158296#1" id="xi_dong_2" number="78" to="331159373#1" />
	<flow begin="1800" color="0,0,1" end="2700" from="331158296#1" id="xi_nan_2" number="46" to="27318402#0.62" />
	<flow begin="1800" color="1,0,0" end="2700" from="826105809#14" id="nan_xi_2" number="35" to="826096563#0" />
	<flow begin="1800" color="0,1,0" end="2700" from="826105809#14" id="nan_bei_2" number="88" to="897570588" />
	<flow begin="1800" color="0,0,1" end="2700" from="826105809#14" id="nan_dong_2" number="53" to="331159373#1" />
	<flow begin="1800" color="1,0,0" end="2700" from="897570589" id="bei_dong_2" number="44" to="331159373#1" />
	<flow begin="1800" color="0,1,0" end="2700" from="897570589" id="bei_nan_2" number="111" to="27318402#0.62" />
	<flow begin="1800" color="0,0,1" end="2700" from="897570589" id="bei_xi_2" number="67" to="826096563#0" />
	<flow begin="2700" color="1,0,0" end="3600" from="331159364#2.526" id="dong_nan_3" number="83" to="27318402#0.62" />
	<flow begin="2700" color="0,1,0" end="3600" from="331159364#2.526" id="dong_xi_3" number="208" to="826096563#0" />
	<flow begin="2700" color="0,0,1" end="3600" from="331159364#2.526" id="dong_bei_3" number="125" to="897570588" />
	<flow begin="2700" color="1,0,0" end="3600" from="331158296#1" id="xi_bei_3" number="22" to="897570588" />
	<flow begin="2700" color="0,1,0" end="3600" from="331158296#1" id="xi_dong_3" number="54" to="331159373#1" />
	<flow begin="2700" color="0,0,1" end="3600" from="331158296#1" id="xi_nan_3" number="33" to="27318402#0.62" />
	<flow begin="2700" color="1,0,0" end="3600" from="826105809#14" id="nan_xi_3" number="28" to="826096563#0" />
	<flow begin="2700" color="0,1,0" end="3600" from="826105809#14" id="nan_bei_3" number="71" to="897570588" />
	<flow begin="2700" color="0,0,1" end="3600" from="826105809#14" id="nan_dong_3" number="43" to="331159373#1" />
	<flow begin="2700" color="1,0,0" end="3600" from="897570589" id="bei_dong_3" number="58" to="331159373#1" />
	<flow begin="2700" color="0,1,0" end="3600" from="897570589" id="bei_nan_3" number="144" to="27318402#0.62" />
	<flow begin="2700" color="0,0,1" end="3600" from="897570589" id="bei_xi_3" number="87" to="826096563#0" />
	<flow begin="3600" color="1,0,0" end="4500" from="331159364#2.526" id="dong_nan_4" number="76" to="27318402#0.62" />
	<flow begin="3600" color="0,1,0" end="4500" from="331159364#2.526" id="dong_xi_4" number="190" to="826096563#0" />
	<flow begin="3600" color="0,0,1" end="4500" from="331159364#2.526" id="dong_bei_4" number="114" to="897570588" />
	<flow begin="3600" color="1,0,0" end="4500" from="331158296#1" id="xi_bei_4" number="22" to="897570588" />
	<flow begin="3600" color="0,1,0" end="4500" from="331158296#1" id="xi_dong_4" number="56" to="331159373#1" />
	<flow begin="3600" color="0,0,1" end="4500" from="331158296#1" id="xi_nan_4" number="33" to="27318402#0.62" />
	<flow begin="3600" color="1,0,0" end="4500" from="826105809#14" id="nan_xi_4" number="24" to="826096563#0" />
	<flow begin="3600" color="0,1,0" end="4500" from="826105809#14" id="nan_bei_4" number="59" to="897570588" />
	<flow begin="3600" color="0,0,1" end="4500" from="826105809#14" id="nan_dong_4" number="35" to="331159373#1" />
	<flow begin="3600" color="1,0,0" end="4500" from="897570589" id="bei_dong_4" number="57" to="331159373#1" />
	<flow begin="3600" color="0,1,0" end="4500" from="897570589" id="bei_nan_4" number="143" to="27318402#0.62" />
	<flow begin="3600" color="0,0,1" end="4500" from="897570589" id="bei_xi_4" number="86" to="826096563#0" />
	<flow begin="4500" color="1,0,0" end="5400" from="331159364#2.526" id="dong_nan_5" number="67" to="27318402#0.62" />
	<flow begin="4500" color="0,1,0" end="5400" from="331159364#2.526" id="dong_xi_5" number="168" to="826096563#0" />
	<flow begin="4500" color="0,0,1" end="5400" from="331159364#2.526" id="dong_bei_5" number="100" to="897570588" />
	<flow begin="4500" color="1,0,0" end="5400" from="331158296#1" id="xi_bei_5" number="20" to="897570588" />
	<flow begin="4500" color="0,1,0" end="5400" from="331158296#1" id="xi_dong_5" number="50" to="331159373#1" />
	<flow begin="4500" color="0,0,1" end="5400" from="331158296#1" id="xi_nan_5" number="30" to="27318402#0.62" />
	<flow begin="4500" color="1,0,0" end="5400" from="826105809#14" id="nan_xi_5" number="28" to="826096563#0" />
	<flow begin="4500" color="0,1,0" end="5400" from="826105809#14" id="nan_bei_5" number="69" to="897570588" />
	<flow begin="4500" color="0,0,1" end="5400" from="826105809#14" id="nan_dong_5" number="41" to="331159373#1" />
	<flow begin="4500" color="1,0,0" end="5400" from="897570589" id="bei_dong_5" number="48" to="331159373#1" />
	<flow begin="4500" color="0,1,0" end="5400" from="897570589" id="bei_nan_5" number="120" to="27318402#0.62" />
	<flow begin="4500" color="0,0,1" end="5400" from="897570589" id="bei_xi_5" number="72" to="826096563#0" />
	<flow begin="5400" color="1,0,0" end="6300" from="331159364#2.526" id="dong_nan_6" number="57" to="27318402#0.62" />
	<flow begin="5400" color="0,1,0" end="6300" from="331159364#2.526" id="dong_xi_6" number="143" to="826096563#0" />
	<flow begin="5400" color="0,0,1" end="6300" from="331159364#2.526" id="dong_bei_6" number="86" to="897570588" />
	<flow begin="5400" color="1,0,0" end="6300" from="331158296#1" id="xi_bei_6" number="15" to="897570588" />
	<flow begin="5400" color="0,1,0" end="6300" from="331158296#1" id="xi_dong_6" number="38" to="331159373#1" />
	<flow begin="5400" color="0,0,1" end="6300" from="331158296#1" id="xi_nan_6" number="23" to="27318402#0.62" />
	<flow begin="5400" color="1,0,0" end="6300" from="826105809#14" id="nan_xi_6" number="31" to="826096563#0" />
	<flow begin="5400" color="0,1,0" end="6300" from="826105809#14" id="nan_bei_6" number="77" to="897570588" />
	<flow begin="5400" color="0,0,1" end="6300" from="826105809#14" id="nan_dong_6" number="46" to="331159373#1" />
	<flow begin="5400" color="1,0,0" end="6300" from="897570589" id="bei_dong_6" number="45" to="331159373#1" />
	<flow begin="5400" color="0,1,0" end="6300" from="897570589" id="bei_nan_6" number="112" to="27318402#0.62" />
	<flow begin="5400" color="0,0,1" end="6300" from="897570589" id="bei_xi_6" number="67" to="826096563#0" />
	<flow begin="6300" color="1,0,0" end="7200" from="331159364#2.526" id="dong_nan_7" number="59" to="27318402#0.62" />
	<flow begin="6300" color="0,1,0" end="7200" from="331159364#2.526" id="dong_xi_7" number="148" to="826096563#0" />
	<flow begin="6300" color="0,0,1" end="7200" from="331159364#2.526" id="dong_bei_7" number="88" to="897570588" />
	<flow begin="6300" color="1,0,0" end="7200" from="331158296#1" id="xi_bei_7" number="10" to="897570588" />
	<flow begin="6300" color="0,1,0" end="7200" from="331158296#1" id="xi_dong_7" number="25" to="331159373#1" />
	<flow begin="6300" color="0,0,1" end="7200" from="331158296#1" id="xi_nan_7" number="15" to="27318402#0.62" />
	<flow begin="6300" color="1,0,0" end="7200" from="826105809#14" id="nan_xi_7" number="25" to="826096563#0" />
	<flow begin="6300" color="0,1,0" end="7200" from="826105809#14" id="nan_bei_7" number="62" to="897570588" />
	<flow begin="6300" color="0,0,1" end="7200" from="826105809#14" id="nan_dong_7" number="37" to="331159373#1" />
	<flow begin="6300" color="1,0,0" end="7200" from="897570589" id="bei_dong_7" number="37" to="331159373#1" />
	<flow begin="6300" color="0,1,0" end="7200" from="897570589" id="bei_nan_7" number="92" to="27318402#0.62" />
	<flow begin="6300" color="0,0,1" end="7200" from="897570589" id="bei_xi_7" number="55" to="826096563#0" />
</routes>
