<?xml version='1.0' encoding='utf-8'?>
<routes>
	<flow begin="0" end="900" from="331159364#2.526" id="dong_nan_0" number="49" to="897570588" />
	<flow begin="0" end="900" from="331159364#2.526" id="dong_xi_0" number="124" to="331159373#1" />
	<flow begin="0" end="900" from="331159364#2.526" id="dong_bei_0" number="74" to="27318402#1" />
	<flow begin="0" end="900" from="331158296#1" id="xi_bei_0" number="11" to="27318402#1" />
	<flow begin="0" end="900" from="331158296#1" id="xi_dong_0" number="27" to="826096563#0" />
	<flow begin="0" end="900" from="331158296#1" id="xi_nan_0" number="16" to="897570588" />
	<flow begin="0" end="900" from="826105809#13" id="nan_xi_0" number="25" to="331159373#1" />
	<flow begin="0" end="900" from="826105809#13" id="nan_bei_0" number="62" to="27318402#1" />
	<flow begin="0" end="900" from="826105809#13" id="nan_dong_0" number="37" to="826096563#0" />
	<flow begin="0" end="900" from="897570589" id="bei_dong_0" number="45" to="826096563#0" />
	<flow begin="0" end="900" from="897570589" id="bei_nan_0" number="112" to="897570588" />
	<flow begin="0" end="900" from="897570589" id="bei_xi_0" number="67" to="331159373#1" />
	<flow begin="900" end="1800" from="331159364#2.526" id="dong_nan_1" number="62" to="897570588" />
	<flow begin="900" end="1800" from="331159364#2.526" id="dong_xi_1" number="154" to="331159373#1" />
	<flow begin="900" end="1800" from="331159364#2.526" id="dong_bei_1" number="92" to="27318402#1" />
	<flow begin="900" end="1800" from="331158296#1" id="xi_bei_1" number="11" to="27318402#1" />
	<flow begin="900" end="1800" from="331158296#1" id="xi_dong_1" number="28" to="826096563#0" />
	<flow begin="900" end="1800" from="331158296#1" id="xi_nan_1" number="16" to="897570588" />
	<flow begin="900" end="1800" from="826105809#13" id="nan_xi_1" number="27" to="331159373#1" />
	<flow begin="900" end="1800" from="826105809#13" id="nan_bei_1" number="68" to="27318402#1" />
	<flow begin="900" end="1800" from="826105809#13" id="nan_dong_1" number="41" to="826096563#0" />
	<flow begin="900" end="1800" from="897570589" id="bei_dong_1" number="59" to="826096563#0" />
	<flow begin="900" end="1800" from="897570589" id="bei_nan_1" number="148" to="897570588" />
	<flow begin="900" end="1800" from="897570589" id="bei_xi_1" number="89" to="331159373#1" />
	<flow begin="1800" end="2700" from="331159364#2.526" id="dong_nan_2" number="38" to="897570588" />
	<flow begin="1800" end="2700" from="331159364#2.526" id="dong_xi_2" number="96" to="331159373#1" />
	<flow begin="1800" end="2700" from="331159364#2.526" id="dong_bei_2" number="58" to="27318402#1" />
	<flow begin="1800" end="2700" from="331158296#1" id="xi_bei_2" number="12" to="27318402#1" />
	<flow begin="1800" end="2700" from="331158296#1" id="xi_dong_2" number="29" to="826096563#0" />
	<flow begin="1800" end="2700" from="331158296#1" id="xi_nan_2" number="17" to="897570588" />
	<flow begin="1800" end="2700" from="826105809#13" id="nan_xi_2" number="23" to="331159373#1" />
	<flow begin="1800" end="2700" from="826105809#13" id="nan_bei_2" number="57" to="27318402#1" />
	<flow begin="1800" end="2700" from="826105809#13" id="nan_dong_2" number="34" to="826096563#0" />
	<flow begin="1800" end="2700" from="897570589" id="bei_dong_2" number="49" to="826096563#0" />
	<flow begin="1800" end="2700" from="897570589" id="bei_nan_2" number="122" to="897570588" />
	<flow begin="1800" end="2700" from="897570589" id="bei_xi_2" number="74" to="331159373#1" />
	<flow begin="2700" end="3600" from="331159364#2.526" id="dong_nan_3" number="57" to="897570588" />
	<flow begin="2700" end="3600" from="331159364#2.526" id="dong_xi_3" number="142" to="331159373#1" />
	<flow begin="2700" end="3600" from="331159364#2.526" id="dong_bei_3" number="85" to="27318402#1" />
	<flow begin="2700" end="3600" from="331158296#1" id="xi_bei_3" number="17" to="27318402#1" />
	<flow begin="2700" end="3600" from="331158296#1" id="xi_dong_3" number="42" to="826096563#0" />
	<flow begin="2700" end="3600" from="331158296#1" id="xi_nan_3" number="25" to="897570588" />
	<flow begin="2700" end="3600" from="826105809#13" id="nan_xi_3" number="21" to="331159373#1" />
	<flow begin="2700" end="3600" from="826105809#13" id="nan_bei_3" number="54" to="27318402#1" />
	<flow begin="2700" end="3600" from="826105809#13" id="nan_dong_3" number="32" to="826096563#0" />
	<flow begin="2700" end="3600" from="897570589" id="bei_dong_3" number="64" to="826096563#0" />
	<flow begin="2700" end="3600" from="897570589" id="bei_nan_3" number="159" to="897570588" />
	<flow begin="2700" end="3600" from="897570589" id="bei_xi_3" number="95" to="331159373#1" />
	<flow begin="3600" end="4500" from="331159364#2.526" id="dong_nan_4" number="42" to="897570588" />
	<flow begin="3600" end="4500" from="331159364#2.526" id="dong_xi_4" number="105" to="331159373#1" />
	<flow begin="3600" end="4500" from="331159364#2.526" id="dong_bei_4" number="63" to="27318402#1" />
	<flow begin="3600" end="4500" from="331158296#1" id="xi_bei_4" number="12" to="27318402#1" />
	<flow begin="3600" end="4500" from="331158296#1" id="xi_dong_4" number="31" to="826096563#0" />
	<flow begin="3600" end="4500" from="331158296#1" id="xi_nan_4" number="19" to="897570588" />
	<flow begin="3600" end="4500" from="826105809#13" id="nan_xi_4" number="17" to="331159373#1" />
	<flow begin="3600" end="4500" from="826105809#13" id="nan_bei_4" number="43" to="27318402#1" />
	<flow begin="3600" end="4500" from="826105809#13" id="nan_dong_4" number="26" to="826096563#0" />
	<flow begin="3600" end="4500" from="897570589" id="bei_dong_4" number="72" to="826096563#0" />
	<flow begin="3600" end="4500" from="897570589" id="bei_nan_4" number="180" to="897570588" />
	<flow begin="3600" end="4500" from="897570589" id="bei_xi_4" number="108" to="331159373#1" />
	<flow begin="4500" end="5400" from="331159364#2.526" id="dong_nan_5" number="62" to="897570588" />
	<flow begin="4500" end="5400" from="331159364#2.526" id="dong_xi_5" number="154" to="331159373#1" />
	<flow begin="4500" end="5400" from="331159364#2.526" id="dong_bei_5" number="92" to="27318402#1" />
	<flow begin="4500" end="5400" from="331158296#1" id="xi_bei_5" number="12" to="27318402#1" />
	<flow begin="4500" end="5400" from="331158296#1" id="xi_dong_5" number="29" to="826096563#0" />
	<flow begin="4500" end="5400" from="331158296#1" id="xi_nan_5" number="17" to="897570588" />
	<flow begin="4500" end="5400" from="826105809#13" id="nan_xi_5" number="20" to="331159373#1" />
	<flow begin="4500" end="5400" from="826105809#13" id="nan_bei_5" number="49" to="27318402#1" />
	<flow begin="4500" end="5400" from="826105809#13" id="nan_dong_5" number="29" to="826096563#0" />
	<flow begin="4500" end="5400" from="897570589" id="bei_dong_5" number="80" to="826096563#0" />
	<flow begin="4500" end="5400" from="897570589" id="bei_nan_5" number="200" to="897570588" />
	<flow begin="4500" end="5400" from="897570589" id="bei_xi_5" number="120" to="331159373#1" />
	<flow begin="5400" end="6300" from="331159364#2.526" id="dong_nan_6" number="57" to="897570588" />
	<flow begin="5400" end="6300" from="331159364#2.526" id="dong_xi_6" number="142" to="331159373#1" />
	<flow begin="5400" end="6300" from="331159364#2.526" id="dong_bei_6" number="85" to="27318402#1" />
	<flow begin="5400" end="6300" from="331158296#1" id="xi_bei_6" number="10" to="27318402#1" />
	<flow begin="5400" end="6300" from="331158296#1" id="xi_dong_6" number="26" to="826096563#0" />
	<flow begin="5400" end="6300" from="331158296#1" id="xi_nan_6" number="16" to="897570588" />
	<flow begin="5400" end="6300" from="826105809#13" id="nan_xi_6" number="20" to="331159373#1" />
	<flow begin="5400" end="6300" from="826105809#13" id="nan_bei_6" number="50" to="27318402#1" />
	<flow begin="5400" end="6300" from="826105809#13" id="nan_dong_6" number="30" to="826096563#0" />
	<flow begin="5400" end="6300" from="897570589" id="bei_dong_6" number="66" to="826096563#0" />
	<flow begin="5400" end="6300" from="897570589" id="bei_nan_6" number="164" to="897570588" />
	<flow begin="5400" end="6300" from="897570589" id="bei_xi_6" number="99" to="331159373#1" />
	<flow begin="6300" end="7200" from="331159364#2.526" id="dong_nan_7" number="38" to="897570588" />
	<flow begin="6300" end="7200" from="331159364#2.526" id="dong_xi_7" number="95" to="331159373#1" />
	<flow begin="6300" end="7200" from="331159364#2.526" id="dong_bei_7" number="57" to="27318402#1" />
	<flow begin="6300" end="7200" from="331158296#1" id="xi_bei_7" number="11" to="27318402#1" />
	<flow begin="6300" end="7200" from="331158296#1" id="xi_dong_7" number="26" to="826096563#0" />
	<flow begin="6300" end="7200" from="331158296#1" id="xi_nan_7" number="16" to="897570588" />
	<flow begin="6300" end="7200" from="826105809#13" id="nan_xi_7" number="19" to="331159373#1" />
	<flow begin="6300" end="7200" from="826105809#13" id="nan_bei_7" number="46" to="27318402#1" />
	<flow begin="6300" end="7200" from="826105809#13" id="nan_dong_7" number="28" to="826096563#0" />
	<flow begin="6300" end="7200" from="897570589" id="bei_dong_7" number="53" to="826096563#0" />
	<flow begin="6300" end="7200" from="897570589" id="bei_nan_7" number="132" to="897570588" />
	<flow begin="6300" end="7200" from="897570589" id="bei_xi_7" number="79" to="331159373#1" />
</routes>
